LAMMPS (28 Mar 2023)
Processor partition = 2
variable ibead uloop 99 pad

units metal
atom_style atomic
atom_modify map yes
boundary p p p
pair_style lj/cut 9.5251
read_data data.metalnpt03
Reading data file ...
  orthogonal box = (-11.876697 -11.876697 -11.876697) to (11.876697 11.876697 11.876697)
  reading atoms ...
  200 atoms
  reading velocities ...
  200 velocities

pair_coeff    * * 0.00965188 3.4
pair_modify shift yes

mass 1 39.948

timestep 0.001

velocity all create 0.0 03

fix 1 all pimd/langevin ensemble npt integrator obabo thermostat PILE_L 1234 tau 1.0 temp 113.15 iso 1.0 barostat BZP taup 1.0 fixcom no

Initializing PIMD BZP barostat...
The barostat mass is W = 2.3401256650800001e+01

thermo_style custom step temp f_1[*] vol press
thermo 100
thermo_modify norm no

# dump_modify dcd sort id format line "%d %d %.16f %.16f %.16f %.16f %.16f %.16f %d %d %d %.16f %.16f %.16f"

run 1000
Generated 0 of 0 mixed pair_coeff terms from geometric mixing rule

Initializing PI Langevin equation thermostat...
Bead ID    |    omega    |    tau    |    c1    |    c2
PILE_L thermostat successfully initialized!

Step          Temp          f_1[1]         f_1[2]         f_1[3]         f_1[4]         f_1[5]         f_1[6]         f_1[7]         f_1[8]         f_1[9]        f_1[10]        f_1[11]        f_1[12]        f_1[13]        f_1[14]        f_1[15]         Volume         Press
0   0              0              10.862314     -7.320388       4.3005229     -21.877018     -8.7249482      2.9571502     -1743.5332     -698.49808     -172.07477      0              0              0.033460054   -0.37064378     4.216227       13402.228     -175.34503
Averages over the last 6 of 11 rows, steps 500 to 1000:
Temp f_1[1] f_1[2] f_1[3] f_1[4] f_1[5] f_1[6] f_1[7] f_1[8] f_1[9] f_1[10] f_1[11] f_1[12] f_1[13] f_1[14] f_1[15] Volume Press
453.034 11.6533 11.4398 -8.29678 45.3111 -22.0648 3.84557 2.96122 -1956.19 -1064.92 -47.4189 0.031347 0.0530558 0.030109 -0.366517 45.2403 12060 761.128
Loop time of 0.248185 on 1 procs for 1000 steps with 200 atoms
